<?xml version="1.0" encoding="UTF-8"?>

<!-- generated on Tue Jul  7 00:43:36 2020 by Eclipse SUMO netconvert Version 1.6.0
<configuration xmlns:xsi="http://www.w3.org/2001/XMLSchema-instance" xsi:noNamespaceSchemaLocation="http://sumo.dlr.de/xsd/netconvertConfiguration.xsd">

    <input>
        <node-files value="intersection.nod.xml"/>
        <edge-files value="intersection.edg.xml"/>
        <connection-files value="intersection.con.xml"/>
    </input>

    <output>
        <output-file value="intersection.net.xml"/>
    </output>

    <report>
        <verbose value="true"/>
        <aggregate-warnings value="5"/>
    </report>

</configuration>
-->

<net version="1.6" junctionCornerDetail="5" limitTurnSpeed="5.50" xmlns:xsi="http://www.w3.org/2001/XMLSchema-instance" xsi:noNamespaceSchemaLocation="http://sumo.dlr.de/xsd/net_file.xsd">

    <location netOffset="50.00,50.00" convBoundary="0.00,0.00,100.00,100.00" origBoundary="-50.00,-50.00,50.00,50.00" projParameter="!"/>

    <edge id=":0_0" function="internal">
        <lane id=":0_0_0" index="0" disallow="pedestrian" speed="16.00" length="27.20" shape="42.00,63.60 42.00,36.40"/>
        <lane id=":0_0_1" index="1" disallow="pedestrian" speed="16.00" length="27.20" shape="45.20,63.60 45.20,36.40"/>
        <lane id=":0_0_2" index="2" disallow="pedestrian" speed="16.00" length="27.20" shape="48.40,63.60 48.40,36.40"/>
    </edge>
    <edge id=":0_3" function="internal">
        <lane id=":0_3_0" index="0" disallow="pedestrian" speed="23.50" length="27.20" shape="63.60,58.00 36.40,58.00"/>
        <lane id=":0_3_1" index="1" disallow="pedestrian" speed="23.50" length="27.20" shape="63.60,54.80 36.40,54.80"/>
        <lane id=":0_3_2" index="2" disallow="pedestrian" speed="23.50" length="27.20" shape="63.60,51.60 36.40,51.60"/>
    </edge>
    <edge id=":0_6" function="internal">
        <lane id=":0_6_0" index="0" disallow="pedestrian" speed="21.00" length="27.20" shape="58.00,36.40 58.00,63.60"/>
        <lane id=":0_6_1" index="1" disallow="pedestrian" speed="21.00" length="27.20" shape="54.80,36.40 54.80,63.60"/>
        <lane id=":0_6_2" index="2" disallow="pedestrian" speed="21.00" length="27.20" shape="51.60,36.40 51.60,63.60"/>
    </edge>
    <edge id=":0_9" function="internal">
        <lane id=":0_9_0" index="0" disallow="pedestrian" speed="23.50" length="27.28" shape="36.40,42.00 63.60,42.00"/>
        <lane id=":0_9_1" index="1" disallow="pedestrian" speed="23.50" length="27.28" shape="36.40,45.20 63.60,45.20"/>
        <lane id=":0_9_2" index="2" disallow="pedestrian" speed="23.50" length="27.28" shape="36.40,45.20 44.50,45.70 50.00,46.80 55.50,47.90 63.60,48.40"/>
    </edge>
    <edge id=":0_12" function="internal">
        <lane id=":0_12_0" index="0" disallow="pedestrian" speed="10.88" length="9.57" shape="36.40,48.40 44.45,49.35 45.76,50.00"/>
    </edge>
    <edge id=":0_13" function="internal">
        <lane id=":0_13_0" index="0" disallow="pedestrian" speed="10.36" length="7.98" shape="36.40,48.40 43.05,49.35 44.13,50.00"/>
    </edge>
    <edge id=":0_14" function="internal">
        <lane id=":0_14_0" index="0" disallow="pedestrian" speed="3.65" length="2.34" shape="36.40,48.40 37.60,49.20 38.00,50.00"/>
    </edge>
    <edge id=":0_15" function="internal">
        <lane id=":0_15_0" index="0" disallow="pedestrian" speed="10.88" length="17.57" shape="45.76,50.00 50.20,52.20 53.65,56.95 54.80,63.60"/>
    </edge>
    <edge id=":0_16" function="internal">
        <lane id=":0_16_0" index="0" disallow="pedestrian" speed="10.36" length="16.53" shape="44.13,50.00 47.80,52.20 50.65,56.95 51.60,63.60"/>
    </edge>
    <edge id=":0_17" function="internal">
        <lane id=":0_17_0" index="0" disallow="pedestrian" speed="3.65" length="2.34" shape="38.00,50.00 37.60,50.80 36.40,51.60"/>
    </edge>
    <edge id=":0_c0" function="crossing" crossingEdges="4o 4i">
        <lane id=":0_c0_0" index="0" allow="pedestrian" speed="1.00" length="19.20" width="4.00" shape="59.60,61.60 40.40,61.60"/>
    </edge>
    <edge id=":0_c1" function="crossing" crossingEdges="2o 2i">
        <lane id=":0_c1_0" index="0" allow="pedestrian" speed="1.00" length="19.20" width="4.00" shape="61.60,40.40 61.60,59.60"/>
    </edge>
    <edge id=":0_c2" function="crossing" crossingEdges="3o 3i">
        <lane id=":0_c2_0" index="0" allow="pedestrian" speed="1.00" length="19.20" width="4.00" shape="40.40,38.40 59.60,38.40"/>
    </edge>
    <edge id=":0_c3" function="crossing" crossingEdges="1o 1i">
        <lane id=":0_c3_0" index="0" allow="pedestrian" speed="1.00" length="19.20" width="4.00" shape="38.40,59.60 38.40,40.40"/>
    </edge>
    <edge id=":0_w0" function="walkingarea">
        <lane id=":0_w0_0" index="0" allow="pedestrian" speed="1.00" length="3.30" width="4.00" shape="36.40,59.60 36.40,61.60 38.40,63.60 40.40,63.60 40.29,62.38 39.96,61.38 39.40,60.60 38.62,60.04 37.62,59.71"/>
    </edge>
    <edge id=":0_w1" function="walkingarea">
        <lane id=":0_w1_0" index="0" allow="pedestrian" speed="1.00" length="3.30" width="4.00" shape="59.60,63.60 61.60,63.60 63.60,61.60 63.60,59.60 62.38,59.71 61.38,60.04 60.60,60.60 60.04,61.38 59.71,62.38"/>
    </edge>
    <edge id=":0_w2" function="walkingarea">
        <lane id=":0_w2_0" index="0" allow="pedestrian" speed="1.00" length="3.30" width="4.00" shape="63.60,40.40 63.60,38.40 61.60,36.40 59.60,36.40 59.71,37.62 60.04,38.62 60.60,39.40 61.38,39.96 62.38,40.29"/>
    </edge>
    <edge id=":0_w3" function="walkingarea">
        <lane id=":0_w3_0" index="0" allow="pedestrian" speed="1.00" length="3.30" width="4.00" shape="40.40,36.40 38.40,36.40 36.40,38.40 36.40,40.40 37.62,40.29 38.62,39.96 39.40,39.40 39.96,38.62 40.29,37.62"/>
    </edge>
    <edge id=":1_0" function="internal">
        <lane id=":1_0_0" index="0" disallow="pedestrian" speed="3.65" length="4.67" shape="0.00,51.60 -1.20,50.80 -1.60,50.00 -1.20,49.20 0.00,48.40"/>
    </edge>
    <edge id=":1_w0" function="walkingarea">
        <lane id=":1_w0_0" index="0" allow="pedestrian" speed="1.00" length="21.20" width="2.00" shape="0.00,40.40 0.00,38.40 0.00,61.60 0.00,59.60"/>
    </edge>
    <edge id=":2_0" function="internal">
        <lane id=":2_0_0" index="0" disallow="pedestrian" speed="3.65" length="4.67" shape="100.00,48.40 101.20,49.20 101.60,50.00 101.20,50.80 100.00,51.60"/>
    </edge>
    <edge id=":2_w0" function="walkingarea">
        <lane id=":2_w0_0" index="0" allow="pedestrian" speed="1.00" length="21.20" width="2.00" shape="100.00,59.60 100.00,61.60 100.00,38.40 100.00,40.40"/>
    </edge>
    <edge id=":3_0" function="internal">
        <lane id=":3_0_0" index="0" disallow="pedestrian" speed="3.65" length="4.67" shape="48.40,0.00 49.20,-1.20 50.00,-1.60 50.80,-1.20 51.60,0.00"/>
    </edge>
    <edge id=":3_w0" function="walkingarea">
        <lane id=":3_w0_0" index="0" allow="pedestrian" speed="1.00" length="21.20" width="2.00" shape="59.60,0.00 61.60,0.00 38.40,0.00 40.40,0.00"/>
    </edge>
    <edge id=":4_0" function="internal">
        <lane id=":4_0_0" index="0" disallow="pedestrian" speed="3.65" length="4.67" shape="51.60,100.00 50.80,101.20 50.00,101.60 49.20,101.20 48.40,100.00"/>
    </edge>
    <edge id=":4_w0" function="walkingarea">
        <lane id=":4_w0_0" index="0" allow="pedestrian" speed="1.00" length="21.20" width="2.00" shape="40.40,100.00 38.40,100.00 61.60,100.00 59.60,100.00"/>
    </edge>

    <edge id="1i" from="1" to="0" priority="78">
        <lane id="1i_0" index="0" allow="pedestrian" speed="25.00" length="36.40" width="2.00" shape="0.00,39.40 36.40,39.40"/>
        <lane id="1i_1" index="1" disallow="pedestrian" speed="25.00" length="36.40" shape="0.00,42.00 36.40,42.00"/>
        <lane id="1i_2" index="2" disallow="pedestrian" speed="25.00" length="36.40" shape="0.00,45.20 36.40,45.20"/>
        <lane id="1i_3" index="3" disallow="pedestrian" speed="25.00" length="36.40" shape="0.00,48.40 36.40,48.40"/>
    </edge>
    <edge id="1o" from="0" to="1" priority="46">
        <lane id="1o_0" index="0" allow="pedestrian" speed="22.00" length="36.40" width="2.00" shape="36.40,60.60 0.00,60.60"/>
        <lane id="1o_1" index="1" disallow="pedestrian" speed="22.00" length="36.40" shape="36.40,58.00 0.00,58.00"/>
        <lane id="1o_2" index="2" disallow="pedestrian" speed="22.00" length="36.40" shape="36.40,54.80 0.00,54.80"/>
        <lane id="1o_3" index="3" disallow="pedestrian" speed="22.00" length="36.40" shape="36.40,51.60 0.00,51.60"/>
    </edge>
    <edge id="2i" from="2" to="0" priority="78">
        <lane id="2i_0" index="0" allow="pedestrian" speed="25.00" length="36.40" width="2.00" shape="100.00,60.60 63.60,60.60"/>
        <lane id="2i_1" index="1" disallow="pedestrian" speed="25.00" length="36.40" shape="100.00,58.00 63.60,58.00"/>
        <lane id="2i_2" index="2" disallow="pedestrian" speed="25.00" length="36.40" shape="100.00,54.80 63.60,54.80"/>
        <lane id="2i_3" index="3" disallow="pedestrian" speed="25.00" length="36.40" shape="100.00,51.60 63.60,51.60"/>
    </edge>
    <edge id="2o" from="0" to="2" priority="46">
        <lane id="2o_0" index="0" allow="pedestrian" speed="22.00" length="36.40" width="2.00" shape="63.60,39.40 100.00,39.40"/>
        <lane id="2o_1" index="1" disallow="pedestrian" speed="22.00" length="36.40" shape="63.60,42.00 100.00,42.00"/>
        <lane id="2o_2" index="2" disallow="pedestrian" speed="22.00" length="36.40" shape="63.60,45.20 100.00,45.20"/>
        <lane id="2o_3" index="3" disallow="pedestrian" speed="22.00" length="36.40" shape="63.60,48.40 100.00,48.40"/>
    </edge>
    <edge id="3i" from="3" to="0" priority="78">
        <lane id="3i_0" index="0" allow="pedestrian" speed="22.00" length="36.40" width="2.00" shape="60.60,0.00 60.60,36.40"/>
        <lane id="3i_1" index="1" disallow="pedestrian" speed="22.00" length="36.40" shape="58.00,0.00 58.00,36.40"/>
        <lane id="3i_2" index="2" disallow="pedestrian" speed="22.00" length="36.40" shape="54.80,0.00 54.80,36.40"/>
        <lane id="3i_3" index="3" disallow="pedestrian" speed="22.00" length="36.40" shape="51.60,0.00 51.60,36.40"/>
    </edge>
    <edge id="3o" from="0" to="3" priority="46">
        <lane id="3o_0" index="0" allow="pedestrian" speed="20.00" length="36.40" width="2.00" shape="39.40,36.40 39.40,0.00"/>
        <lane id="3o_1" index="1" disallow="pedestrian" speed="20.00" length="36.40" shape="42.00,36.40 42.00,0.00"/>
        <lane id="3o_2" index="2" disallow="pedestrian" speed="20.00" length="36.40" shape="45.20,36.40 45.20,0.00"/>
        <lane id="3o_3" index="3" disallow="pedestrian" speed="20.00" length="36.40" shape="48.40,36.40 48.40,0.00"/>
    </edge>
    <edge id="4i" from="4" to="0" priority="78">
        <lane id="4i_0" index="0" allow="pedestrian" speed="12.00" length="36.40" width="2.00" shape="39.40,100.00 39.40,63.60"/>
        <lane id="4i_1" index="1" disallow="pedestrian" speed="12.00" length="36.40" shape="42.00,100.00 42.00,63.60"/>
        <lane id="4i_2" index="2" disallow="pedestrian" speed="12.00" length="36.40" shape="45.20,100.00 45.20,63.60"/>
        <lane id="4i_3" index="3" disallow="pedestrian" speed="12.00" length="36.40" shape="48.40,100.00 48.40,63.60"/>
    </edge>
    <edge id="4o" from="0" to="4" priority="46">
        <lane id="4o_0" index="0" allow="pedestrian" speed="20.00" length="36.40" width="2.00" shape="60.60,63.60 60.60,100.00"/>
        <lane id="4o_1" index="1" disallow="pedestrian" speed="20.00" length="36.40" shape="58.00,63.60 58.00,100.00"/>
        <lane id="4o_2" index="2" disallow="pedestrian" speed="20.00" length="36.40" shape="54.80,63.60 54.80,100.00"/>
        <lane id="4o_3" index="3" disallow="pedestrian" speed="20.00" length="36.40" shape="51.60,63.60 51.60,100.00"/>
    </edge>

    <tlLogic id="0" type="static" programID="0" offset="0">
        <phase duration="30" state="rrrGGGrrrGGGrrrGrGr"/>
        <phase duration="5"  state="rrrGGGrrrGGGrrrrrrr"/>
        <phase duration="5"  state="rrryyyrrryyyrrrrrrr"/>
        <phase duration="6"  state="rrrrrrrrrGGGGGGrrrr"/>
        <phase duration="5"  state="rrrrrrrrryyyyyyrrrr"/>
        <phase duration="29" state="GGGrrrGGGrrrrrrrGrG"/>
        <phase duration="5"  state="GGGrrrGGGrrrrrrrrrr"/>
        <phase duration="5"  state="yyyrrryyyrrrrrrrrrr"/>
    </tlLogic>

    <junction id="0" type="traffic_light" x="50.00" y="50.00" incLanes="4i_0 4i_1 4i_2 4i_3 2i_0 2i_1 2i_2 2i_3 3i_0 3i_1 3i_2 3i_3 1i_0 1i_1 1i_2 1i_3 :0_w1_0 :0_w2_0 :0_w3_0 :0_w0_0" intLanes=":0_0_0 :0_0_1 :0_0_2 :0_3_0 :0_3_1 :0_3_2 :0_6_0 :0_6_1 :0_6_2 :0_9_0 :0_9_1 :0_9_2 :0_15_0 :0_16_0 :0_17_0 :0_c0_0 :0_c1_0 :0_c2_0 :0_c3_0" shape="38.40,63.60 61.60,63.60 61.82,62.49 62.10,62.10 62.49,61.82 62.99,61.66 63.60,61.60 63.60,38.40 62.49,38.18 62.10,37.90 61.82,37.51 61.66,37.01 61.60,36.40 38.40,36.40 38.18,37.51 37.90,37.90 37.51,38.18 37.01,38.34 36.40,38.40 36.40,61.60 37.51,61.82 37.90,62.10 38.18,62.49 38.34,62.99">
        <request index="0"  response="0101011111000111000" foes="0101011111000111000" cont="0"/>
        <request index="1"  response="0101011111000111000" foes="0101011111000111000" cont="0"/>
        <request index="2"  response="0101011111000111000" foes="0101011111000111000" cont="0"/>
        <request index="3"  response="1010000000000000000" foes="1010111000111000111" cont="0"/>
        <request index="4"  response="1010000000000000000" foes="1010111000111000111" cont="0"/>
        <request index="5"  response="1010000000000000000" foes="1010111000111000111" cont="0"/>
        <request index="6"  response="0101011111000111000" foes="0101011111000111000" cont="0"/>
        <request index="7"  response="0101011111000111000" foes="0101011111000111000" cont="0"/>
        <request index="8"  response="0101011111000111000" foes="0101011111000111000" cont="0"/>
        <request index="9"  response="1010000000000000000" foes="1010000000111000111" cont="0"/>
        <request index="10" response="1010000000000000000" foes="1010000000111000111" cont="0"/>
        <request index="11" response="1010000000000000000" foes="1010000000111000111" cont="0"/>
        <request index="12" response="1001000000000111000" foes="1001000000111111111" cont="1"/>
        <request index="13" response="1001000000000111000" foes="1001000000111111111" cont="1"/>
        <request index="14" response="1000000000000111000" foes="1000000000000111000" cont="1"/>
        <request index="15" response="0000000000000000000" foes="0000011000111000111" cont="0"/>
        <request index="16" response="0000000000000000000" foes="0000000111000111000" cont="0"/>
        <request index="17" response="0000000000000000000" foes="0000000000111000111" cont="0"/>
        <request index="18" response="0000000000000000000" foes="0000111111000111000" cont="0"/>
    </junction>
    <junction id="1" type="priority" x="0.00" y="50.00" incLanes="1o_0 1o_1 1o_2 1o_3" intLanes=":1_0_0" shape="0.00,50.00 0.00,61.60 0.00,50.00">
        <request index="0" response="0" foes="0" cont="0"/>
    </junction>
    <junction id="2" type="priority" x="100.00" y="50.00" incLanes="2o_0 2o_1 2o_2 2o_3" intLanes=":2_0_0" shape="100.00,50.00 100.00,38.40 100.00,50.00">
        <request index="0" response="0" foes="0" cont="0"/>
    </junction>
    <junction id="3" type="priority" x="50.00" y="0.00" incLanes="3o_0 3o_1 3o_2 3o_3" intLanes=":3_0_0" shape="50.00,0.00 38.40,0.00 50.00,0.00">
        <request index="0" response="0" foes="0" cont="0"/>
    </junction>
    <junction id="4" type="priority" x="50.00" y="100.00" incLanes="4o_0 4o_1 4o_2 4o_3" intLanes=":4_0_0" shape="50.00,100.00 61.60,100.00 50.00,100.00">
        <request index="0" response="0" foes="0" cont="0"/>
    </junction>

    <junction id=":0_15_0" type="internal" x="45.76" y="50.00" incLanes=":0_12_0 2i_1 2i_2 2i_3" intLanes=":0_0_0 :0_0_1 :0_0_2 :0_3_0 :0_3_1 :0_3_2 :0_6_0 :0_6_1 :0_6_2 :0_c0_0 :0_c3_0"/>
    <junction id=":0_16_0" type="internal" x="44.13" y="50.00" incLanes=":0_13_0 2i_1 2i_2 2i_3" intLanes=":0_0_0 :0_0_1 :0_0_2 :0_3_0 :0_3_1 :0_3_2 :0_6_0 :0_6_1 :0_6_2 :0_c0_0 :0_c3_0"/>
    <junction id=":0_17_0" type="internal" x="38.00" y="50.00" incLanes=":0_14_0 2i_1 2i_2 2i_3" intLanes=":0_3_0 :0_3_1 :0_3_2 :0_c3_0 :0_c3_0"/>

    <connection from="1i" to="2o" fromLane="1" toLane="1" via=":0_9_0" tl="0" linkIndex="9" dir="s" state="o"/>
    <connection from="1i" to="2o" fromLane="2" toLane="2" via=":0_9_1" tl="0" linkIndex="10" dir="s" state="o"/>
    <connection from="1i" to="2o" fromLane="2" toLane="3" via=":0_9_2" tl="0" linkIndex="11" dir="s" state="o"/>
    <connection from="1i" to="4o" fromLane="3" toLane="2" via=":0_12_0" tl="0" linkIndex="12" dir="l" state="o"/>
    <connection from="1i" to="4o" fromLane="3" toLane="3" via=":0_13_0" tl="0" linkIndex="13" dir="l" state="o"/>
    <connection from="1i" to="1o" fromLane="3" toLane="3" via=":0_14_0" tl="0" linkIndex="14" dir="t" state="o"/>
    <connection from="1o" to="1i" fromLane="3" toLane="3" via=":1_0_0" dir="t" state="M"/>
    <connection from="2i" to="1o" fromLane="1" toLane="1" via=":0_3_0" tl="0" linkIndex="3" dir="s" state="o"/>
    <connection from="2i" to="1o" fromLane="2" toLane="2" via=":0_3_1" tl="0" linkIndex="4" dir="s" state="o"/>
    <connection from="2i" to="1o" fromLane="3" toLane="3" via=":0_3_2" tl="0" linkIndex="5" dir="s" state="o"/>
    <connection from="2o" to="2i" fromLane="3" toLane="3" via=":2_0_0" dir="t" state="M"/>
    <connection from="3i" to="4o" fromLane="1" toLane="1" via=":0_6_0" tl="0" linkIndex="6" dir="s" state="o"/>
    <connection from="3i" to="4o" fromLane="2" toLane="2" via=":0_6_1" tl="0" linkIndex="7" dir="s" state="o"/>
    <connection from="3i" to="4o" fromLane="3" toLane="3" via=":0_6_2" tl="0" linkIndex="8" dir="s" state="o"/>
    <connection from="3o" to="3i" fromLane="3" toLane="3" via=":3_0_0" dir="t" state="M"/>
    <connection from="4i" to="3o" fromLane="1" toLane="1" via=":0_0_0" tl="0" linkIndex="0" dir="s" state="o"/>
    <connection from="4i" to="3o" fromLane="2" toLane="2" via=":0_0_1" tl="0" linkIndex="1" dir="s" state="o"/>
    <connection from="4i" to="3o" fromLane="3" toLane="3" via=":0_0_2" tl="0" linkIndex="2" dir="s" state="o"/>
    <connection from="4o" to="4i" fromLane="3" toLane="3" via=":4_0_0" dir="t" state="M"/>

    <connection from=":0_0" to="3o" fromLane="0" toLane="1" dir="s" state="M"/>
    <connection from=":0_0" to="3o" fromLane="1" toLane="2" dir="s" state="M"/>
    <connection from=":0_0" to="3o" fromLane="2" toLane="3" dir="s" state="M"/>
    <connection from=":0_3" to="1o" fromLane="0" toLane="1" dir="s" state="M"/>
    <connection from=":0_3" to="1o" fromLane="1" toLane="2" dir="s" state="M"/>
    <connection from=":0_3" to="1o" fromLane="2" toLane="3" dir="s" state="M"/>
    <connection from=":0_6" to="4o" fromLane="0" toLane="1" dir="s" state="M"/>
    <connection from=":0_6" to="4o" fromLane="1" toLane="2" dir="s" state="M"/>
    <connection from=":0_6" to="4o" fromLane="2" toLane="3" dir="s" state="M"/>
    <connection from=":0_9" to="2o" fromLane="0" toLane="1" dir="s" state="M"/>
    <connection from=":0_9" to="2o" fromLane="1" toLane="2" dir="s" state="M"/>
    <connection from=":0_9" to="2o" fromLane="2" toLane="3" dir="s" state="M"/>
    <connection from=":0_12" to="4o" fromLane="0" toLane="2" via=":0_15_0" dir="l" state="m"/>
    <connection from=":0_15" to="4o" fromLane="0" toLane="2" dir="l" state="M"/>
    <connection from=":0_13" to="4o" fromLane="0" toLane="3" via=":0_16_0" dir="l" state="m"/>
    <connection from=":0_16" to="4o" fromLane="0" toLane="3" dir="l" state="M"/>
    <connection from=":0_14" to="1o" fromLane="0" toLane="3" via=":0_17_0" dir="t" state="m"/>
    <connection from=":0_17" to="1o" fromLane="0" toLane="3" dir="t" state="M"/>
    <connection from=":1_0" to="1i" fromLane="0" toLane="3" dir="t" state="M"/>
    <connection from=":2_0" to="2i" fromLane="0" toLane="3" dir="t" state="M"/>
    <connection from=":3_0" to="3i" fromLane="0" toLane="3" dir="t" state="M"/>
    <connection from=":4_0" to="4i" fromLane="0" toLane="3" dir="t" state="M"/>

    <connection from=":0_c0" to=":0_w0" fromLane="0" toLane="0" dir="s" state="M"/>
    <connection from=":0_c1" to=":0_w1" fromLane="0" toLane="0" dir="s" state="M"/>
    <connection from=":0_c2" to=":0_w2" fromLane="0" toLane="0" dir="s" state="M"/>
    <connection from=":0_c3" to=":0_w3" fromLane="0" toLane="0" dir="s" state="M"/>
    <connection from=":0_w0" to=":0_c3" fromLane="0" toLane="0" tl="0" linkIndex="18" dir="s" state="M"/>
    <connection from=":0_w0" to="1o" fromLane="0" toLane="0" dir="s" state="M"/>
    <connection from="4i" to=":0_w0" fromLane="0" toLane="0" dir="s" state="M"/>
    <connection from=":0_w1" to=":0_c0" fromLane="0" toLane="0" tl="0" linkIndex="15" dir="s" state="M"/>
    <connection from=":0_w1" to="4o" fromLane="0" toLane="0" dir="s" state="M"/>
    <connection from="2i" to=":0_w1" fromLane="0" toLane="0" dir="s" state="M"/>
    <connection from=":0_w2" to=":0_c1" fromLane="0" toLane="0" tl="0" linkIndex="16" dir="s" state="M"/>
    <connection from=":0_w2" to="2o" fromLane="0" toLane="0" dir="s" state="M"/>
    <connection from="3i" to=":0_w2" fromLane="0" toLane="0" dir="s" state="M"/>
    <connection from=":0_w3" to=":0_c2" fromLane="0" toLane="0" tl="0" linkIndex="17" dir="s" state="M"/>
    <connection from=":0_w3" to="3o" fromLane="0" toLane="0" dir="s" state="M"/>
    <connection from="1i" to=":0_w3" fromLane="0" toLane="0" dir="s" state="M"/>
    <connection from=":1_w0" to="1i" fromLane="0" toLane="0" dir="s" state="M"/>
    <connection from="1o" to=":1_w0" fromLane="0" toLane="0" dir="s" state="M"/>
    <connection from=":2_w0" to="2i" fromLane="0" toLane="0" dir="s" state="M"/>
    <connection from="2o" to=":2_w0" fromLane="0" toLane="0" dir="s" state="M"/>
    <connection from=":3_w0" to="3i" fromLane="0" toLane="0" dir="s" state="M"/>
    <connection from="3o" to=":3_w0" fromLane="0" toLane="0" dir="s" state="M"/>
    <connection from=":4_w0" to="4i" fromLane="0" toLane="0" dir="s" state="M"/>
    <connection from="4o" to=":4_w0" fromLane="0" toLane="0" dir="s" state="M"/>
</net>
